
  -OEChem-12302017113D

  9  8  0     0  0  0  0  0  0999 V2000
    0.5477    0.3297   -0.0621 C   0  0  0  0  0  0  0  0  0  0  0  0
   -0.1168   -0.7881    0.2329 C   0  0  0  0  0  0  0  0  0  0  0  0
   -1.4803   -0.8771    0.1667 O   0  0  0  0  0  0  0  0  0  0  0  0
   -0.2158    1.5206   -0.4772 C   0  0  0  0  0  0  0  0  0  0  0  0
    0.3353    2.5772   -0.7614 O   0  0  0  0  0  0  0  0  0  0  0  0
    1.6274    0.3962   -0.0089 H   0  0  0  0  0  0  0  0  0  0  0  0
    0.3388   -1.7170    0.5467 H   0  0  0  0  0  0  0  0  0  0  0  0
   -1.7743   -1.7634    0.4166 H   0  0  0  0  0  0  0  0  0  0  0  0
   -1.3122    1.4082   -0.5180 H   0  0  0  0  0  0  0  0  0  0  0  0
  1  2  2  0  0  0  0
  2  3  1  0  0  0  0
  1  4  1  0  0  0  0
  4  5  2  0  0  0  0
  1  6  1  0  0  0  0
  2  7  1  0  0  0  0
  3  8  1  0  0  0  0
  4  9  1  0  0  0  0
M  END
$$$$